Version 4.1
SHEET 1 1064 680
WIRE 528 -96 448 -96
WIRE 448 -16 368 -16
WIRE 368 16 368 -16
WIRE 496 16 368 16
WIRE 368 64 368 16
WIRE 32 128 -16 128
WIRE 96 128 96 112
WIRE 496 128 496 96
WIRE 528 128 496 128
WIRE 624 128 592 128
WIRE 368 176 368 144
WIRE 368 176 352 176
WIRE 432 176 368 176
WIRE 624 208 624 128
WIRE 688 208 624 208
WIRE 496 240 496 224
WIRE 560 240 496 240
WIRE 560 320 496 320
WIRE 288 400 288 176
WIRE 496 400 288 400
WIRE 688 400 688 208
WIRE 688 400 576 400
WIRE 288 480 288 400
WIRE 368 480 288 480
WIRE 544 480 432 480
WIRE 624 480 544 480
WIRE 688 480 688 400
WIRE 544 512 544 480
FLAG -224 208 0
FLAG 368 256 0
FLAG 496 320 0
FLAG 528 -96 0
FLAG 544 512 0
DATAFLAG 624 128 ""
DATAFLAG 624 128 ""
SYMBOL ind -112 144 R270
WINDOW 0 32 56 VTop 2
WINDOW 3 5 56 VBottom 2
SYMATTR InstName L1
SYMATTR Value 10”
SYMATTR SpiceLine Rser=1m
SYMBOL cap 96 112 R90
WINDOW 0 0 32 VBottom 2
WINDOW 3 32 32 VTop 2
SYMATTR InstName C1
SYMATTR Value 52p
SYMBOL voltage -224 112 R0
WINDOW 123 24 124 Left 2
WINDOW 39 0 0 Left 0
SYMATTR Value2 AC 10m 0
SYMATTR InstName V1
SYMATTR Value SINE(0 100u 7Meg)
SYMBOL npn 432 128 R0
SYMATTR InstName Q1
SYMATTR Value 2N3904
SYMBOL res 352 48 R0
SYMATTR InstName R2
SYMATTR Value 20k
SYMBOL res 352 160 R0
SYMATTR InstName 10k
SYMATTR Value 10k
SYMBOL res 480 0 R0
SYMATTR InstName R5
SYMATTR Value 5900
SYMBOL voltage 448 0 R180
WINDOW 0 24 96 Left 2
WINDOW 3 24 16 Left 2
WINDOW 123 0 0 Left 0
WINDOW 39 0 0 Left 0
SYMATTR InstName V2
SYMATTR Value 12
SYMBOL cap 352 160 R90
WINDOW 0 0 32 VBottom 2
WINDOW 3 32 32 VTop 2
SYMATTR InstName C2
SYMATTR Value 0.47”
SYMBOL res 544 224 R0
SYMATTR InstName R4
SYMATTR Value 3k
SYMBOL ind 480 416 R270
WINDOW 0 32 56 VTop 2
WINDOW 3 5 56 VBottom 2
SYMATTR InstName L2
SYMATTR Value 10”
SYMATTR SpiceLine Rser=1m
SYMBOL cap 688 464 R90
WINDOW 0 0 32 VBottom 2
WINDOW 3 32 32 VTop 2
SYMATTR InstName C5
SYMATTR Value 104p
SYMBOL cap 432 464 R90
WINDOW 0 0 32 VBottom 2
WINDOW 3 32 32 VTop 2
SYMATTR InstName C6
SYMATTR Value 104p
SYMBOL cap 592 112 R90
WINDOW 0 0 32 VBottom 2
WINDOW 3 32 32 VTop 2
SYMATTR InstName C3
SYMATTR Value 0.47”
TEXT -392 64 Left 2 !.tran 1n 3m 5n
TEXT -392 40 Left 2 ;.ac lin 100 6.5Meg 7.5Meg
