Version 4.1
SHEET 1 2284 484
WIRE 0 -736 -48 -736
WIRE 32 -736 0 -736
WIRE 0 -720 0 -736
WIRE -48 -656 -128 -656
WIRE -128 -624 -128 -656
WIRE 0 -624 -128 -624
WIRE -128 -576 -128 -624
WIRE 0 -512 0 -544
WIRE 128 -512 0 -512
WIRE -128 -464 -128 -496
WIRE -128 -464 -144 -464
WIRE -64 -464 -128 -464
WIRE 128 -432 128 -512
WIRE 192 -432 128 -432
WIRE 0 -400 0 -416
WIRE 64 -400 0 -400
WIRE 192 -400 192 -432
WIRE 224 -400 192 -400
WIRE 192 -368 192 -400
WIRE 64 -320 0 -320
WIRE -208 -240 -208 -464
WIRE 0 -240 -208 -240
WIRE 192 -240 192 -304
WIRE 192 -240 80 -240
WIRE -208 -160 -208 -240
WIRE -128 -160 -208 -160
WIRE 48 -160 -64 -160
WIRE 128 -160 48 -160
WIRE 192 -160 192 -240
WIRE 48 -128 48 -160
WIRE 1984 -48 1600 -48
WIRE 1744 -16 1488 -16
WIRE 64 0 48 0
WIRE 208 0 128 0
WIRE 416 0 208 0
WIRE 480 0 416 0
WIRE 624 0 544 0
WIRE 832 0 624 0
WIRE 896 0 832 0
WIRE 1040 0 960 0
WIRE 1984 0 1984 -48
WIRE -192 16 -192 0
WIRE -64 16 -112 16
WIRE 1168 16 1152 16
WIRE 1264 16 1248 16
WIRE 1744 16 1744 -16
WIRE 1744 16 1664 16
WIRE 1824 16 1744 16
WIRE 1264 32 1264 16
WIRE 2080 32 2064 32
WIRE -192 64 -192 16
WIRE 208 64 208 0
WIRE 416 64 416 0
WIRE 624 64 624 0
WIRE 832 64 832 0
WIRE 1040 64 1040 0
WIRE 1152 64 1152 16
WIRE 1264 64 1264 32
WIRE 2064 64 2064 32
WIRE -64 80 -64 16
WIRE 48 80 48 0
WIRE 1488 80 1488 64
WIRE 1536 80 1488 80
WIRE 1488 96 1488 80
WIRE 1600 96 1600 -48
WIRE 1664 96 1664 80
WIRE 1664 96 1600 96
WIRE 1824 96 1824 80
WIRE 1872 96 1824 96
WIRE 1984 96 1984 80
WIRE 1664 112 1664 96
WIRE 1824 112 1824 96
WIRE 1984 112 1984 96
WIRE 208 160 208 128
WIRE 208 160 48 160
WIRE 1040 176 1040 144
WIRE 1152 176 1152 144
WIRE 1152 176 1040 176
WIRE 1744 176 1664 176
WIRE 1824 176 1744 176
WIRE -192 208 -192 144
WIRE -64 208 -64 160
WIRE 208 208 208 160
WIRE 416 208 416 144
WIRE 624 208 624 128
WIRE 832 208 832 144
WIRE 1040 208 1040 176
WIRE 1488 224 1488 176
WIRE 1744 224 1744 176
WIRE 1744 224 1488 224
WIRE 1872 224 1872 96
WIRE 1984 224 1984 192
WIRE 1984 224 1872 224
WIRE 1856 288 1616 288
WIRE 1936 288 1856 288
WIRE 2032 288 2016 288
WIRE 2144 288 2032 288
WIRE 2032 400 2032 352
FLAG 208 208 0
FLAG 416 208 0
FLAG 624 208 0
FLAG 832 208 0
FLAG 1040 208 0
FLAG -192 208 0
FLAG 1264 32 RF
IOPIN 1264 32 In
FLAG -128 -384 0
FLAG 0 -320 0
FLAG 32 -736 0
FLAG 48 -128 0
FLAG 1536 80 0
FLAG 1264 144 0
FLAG -64 208 0
FLAG 2064 144 0
FLAG 2080 32 OSC
IOPIN 2080 32 In
FLAG 1984 96 AF
IOPIN 1984 96 In
FLAG 1616 288 AF
IOPIN 1616 288 In
FLAG 1856 432 0
FLAG 2032 400 0
FLAG 2144 288 AUDIO
IOPIN 2144 288 In
FLAG 1600 400 AF
IOPIN 1600 400 In
FLAG 1680 464 0
DATAFLAG 848 0 ""
DATAFLAG 848 0 ""
DATAFLAG 848 0 ""
DATAFLAG 848 0 ""
SYMBOL voltage -192 48 R0
WINDOW 123 40 48 Left 2
WINDOW 39 39 77 Left 2
SYMATTR Value2 SINE(0 0.000001 7102000)
SYMATTR InstName V1
SYMATTR Value ""
SYMBOL cap 64 16 R270
WINDOW 0 32 32 VTop 2
WINDOW 3 0 32 VBottom 2
SYMATTR InstName C1
SYMATTR Value 5.100n
SYMBOL cap 192 64 R0
SYMATTR InstName C2
SYMATTR Value 2.400n
SYMBOL ind 400 48 R0
SYMATTR InstName L2
SYMATTR Value 180.0n
SYMBOL cap 480 16 R270
WINDOW 0 32 32 VTop 2
WINDOW 3 0 32 VBottom 2
SYMATTR InstName C3
SYMATTR Value 470.0p
SYMBOL cap 608 64 R0
SYMATTR InstName C4
SYMATTR Value 2.400n
SYMBOL ind 816 48 R0
SYMATTR InstName L4
SYMATTR Value 180.0n
SYMBOL cap 896 16 R270
WINDOW 0 32 32 VTop 2
WINDOW 3 0 32 VBottom 2
SYMATTR InstName C5
SYMATTR Value 5.100n
SYMBOL ind 1024 48 R0
SYMATTR InstName L1
SYMATTR Value 3.02µ
SYMATTR Type ind
SYMATTR SpiceLine Rser=1m
SYMBOL npn -64 -512 R0
SYMATTR InstName Q1
SYMATTR Value 2N3904
SYMBOL res -144 -592 R0
SYMATTR InstName R1
SYMATTR Value 20k
SYMBOL res -144 -480 R0
SYMATTR InstName R2
SYMATTR Value 10k
SYMBOL res -16 -640 R0
SYMATTR InstName R3
SYMATTR Value 5900
SYMBOL voltage -48 -640 R180
WINDOW 0 24 96 Left 2
WINDOW 3 24 16 Left 2
WINDOW 123 0 0 Left 0
WINDOW 39 0 0 Left 0
SYMATTR InstName V2
SYMATTR Value 12
SYMBOL cap -144 -480 R90
WINDOW 0 0 32 VBottom 2
WINDOW 3 32 32 VTop 2
SYMATTR InstName C6
SYMATTR Value 190p
SYMBOL res 48 -416 R0
SYMATTR InstName R4
SYMATTR Value 3k
SYMBOL ind -16 -224 R270
WINDOW 0 32 56 VTop 2
WINDOW 3 5 56 VBottom 2
SYMATTR InstName L3
SYMATTR Value 10µ
SYMATTR SpiceLine Rser=1m
SYMBOL cap 192 -176 R90
WINDOW 0 0 32 VBottom 2
WINDOW 3 32 32 VTop 2
SYMATTR InstName C7
SYMATTR Value 70p
SYMBOL cap -64 -176 R90
WINDOW 0 0 32 VBottom 2
WINDOW 3 32 32 VTop 2
SYMATTR InstName C8
SYMATTR Value 70p
SYMBOL diode 1680 80 R180
WINDOW 0 24 64 Left 2
WINDOW 3 24 0 Left 2
SYMATTR InstName D2
SYMATTR Value 1N5819
SYMBOL diode 1808 16 R0
SYMATTR InstName D1
SYMATTR Value 1N5819
SYMBOL diode 1680 176 R180
WINDOW 0 24 64 Left 2
WINDOW 3 24 0 Left 2
SYMATTR InstName D3
SYMATTR Value 1N5819
SYMBOL diode 1808 112 R0
SYMATTR InstName D4
SYMATTR Value 1N5819
SYMBOL ind 1472 -32 R0
SYMATTR InstName L5
SYMATTR Value 33µ
SYMATTR Type ind
SYMATTR SpiceLine Rser=1m
SYMBOL ind 1472 80 R0
SYMATTR InstName L6
SYMATTR Value 33µ
SYMATTR Type ind
SYMATTR SpiceLine Rser=1m
SYMBOL ind 2000 96 R180
WINDOW 0 36 80 Left 2
WINDOW 3 36 40 Left 2
SYMATTR InstName L7
SYMATTR Value 33µ
SYMATTR Type ind
SYMATTR SpiceLine Rser=1m
SYMBOL ind 2000 208 R180
WINDOW 0 36 80 Left 2
WINDOW 3 36 40 Left 2
SYMATTR InstName L8
SYMATTR Value 33µ
SYMATTR Type ind
SYMATTR SpiceLine Rser=1m
SYMBOL ind 1136 48 R0
SYMATTR InstName L9
SYMATTR Value .58µ
SYMATTR Type ind
SYMATTR SpiceLine Rser=1m
SYMBOL res 1264 0 R90
WINDOW 0 0 56 VBottom 2
WINDOW 3 32 56 VTop 2
SYMATTR InstName R5
SYMATTR Value 1
SYMBOL ind 1248 48 R0
SYMATTR InstName L10
SYMATTR Value 33µ
SYMATTR Type ind
SYMATTR SpiceLine Rser=1m
SYMBOL ind 32 64 R0
SYMATTR InstName L11
SYMATTR Value 3.02µ
SYMATTR Type ind
SYMATTR SpiceLine Rser=1m
SYMBOL ind -80 64 R0
SYMATTR InstName L12
SYMATTR Value .58µ
SYMATTR Type ind
SYMATTR SpiceLine Rser=1m
SYMBOL res -96 0 R90
WINDOW 0 0 56 VBottom 2
WINDOW 3 32 56 VTop 2
SYMATTR InstName R6
SYMATTR Value 1
SYMBOL ind 2048 48 R0
SYMATTR InstName L13
SYMATTR Value 33µ
SYMATTR Type ind
SYMATTR SpiceLine Rser=1m
SYMBOL cap 1840 288 R0
SYMATTR InstName C11
SYMATTR Value 100n
SYMBOL res 1840 336 R0
SYMATTR InstName R9
SYMATTR Value 50
SYMBOL ind 2032 272 R90
WINDOW 0 5 56 VBottom 2
WINDOW 3 32 56 VTop 2
SYMATTR InstName L14
SYMATTR Value 100µ
SYMATTR SpiceLine Rser=1m
SYMBOL cap 2016 288 R0
SYMATTR InstName C12
SYMATTR Value .47µ
SYMBOL cap 208 -304 R180
WINDOW 0 24 56 Left 2
WINDOW 3 24 8 Left 2
SYMATTR InstName C10
SYMATTR Value 0.48µ
SYMBOL res 1696 384 R90
WINDOW 0 0 56 VBottom 2
WINDOW 3 32 56 VTop 2
SYMATTR InstName R11
SYMATTR Value 1k
SYMBOL cap 1664 400 R0
SYMATTR InstName C13
SYMATTR Value 100n
TEXT -208 296 Left 2 !.TRAN 1us 10ms 5ms
TEXT 1192 200 Left 2 !K1 L1 L9 1
TEXT 0 240 Left 2 !K2 L11 L12 1
TEXT 1224 264 Left 2 !K3 L10 L5 L6 1
TEXT 1232 296 Left 2 !K4 L7 L8 L13 1
TEXT 248 -232 Left 2 !.ic V(n007)=0.2
